LTspice 24.1.4 for Windows
Circuit: C:\Users\chris\LTSpice\OsziSelberMachen\Draft1.net
Start Time: Fri Sep 19 10:41:27 2025
solver = Normal
Maximum thread count: 32
tnom = 27
temp = 27
method = trap
Direct Newton iteration for .op point succeeded.
Total elapsed time: 0.072 seconds.

Files loaded:
C:\Users\chris\LTSpice\OsziSelberMachen\Draft1.net

