LTspice 24.1.4 for Windows
Circuit: C:\Users\chris\Schule\Labor\Labor4Klasse\Oszi\LTSPice\Draft1.net
Start Time: Fri Oct  3 10:30:21 2025
solver = Normal
Maximum thread count: 32
tnom = 27
temp = 27
method = trap
Direct Newton iteration for .op point succeeded.
Total elapsed time: 0.054 seconds.

Files loaded:
C:\Users\chris\Schule\Labor\Labor4Klasse\Oszi\LTSPice\Draft1.net

